NW11_EXP_CURRENTS.CSV
Element, I1_1, Ang1_1, I1_2, Ang1_2, I1_3, Ang1_3, I1_4, Ang1_4, Iresid1, AngResid1, I2_1, Ang2_1, I2_2, Ang2_2, I2_3, Ang2_3, I2_4, Ang2_4, Iresid2, AngResid2
Vsource.SOURCE,    163.412,   155.33,    163.412,    35.33,    163.412,   -84.67,          0,     0.00, 5.14179E-005,    58.63,    163.412,   -24.67,    163.412,  -144.67,    163.412,    95.33,          0,     0.00, 5.14179E-005,  -121.37
Line.L_BSB_MT_2354,    0.38446,   155.57,    0.38446,    35.57,    0.38446,   -84.43,          0,     0.00, 6.33368E-009,  -126.03,    0.38446,   -24.43,    0.38446,  -144.43,    0.38446,    95.57,          0,     0.00, 6.26483E-009,    48.01
Line.L_BSB_MT_2355,    5.19021,   -24.43,    5.19021,  -144.43,    5.19021,    95.57,          0,     0.00, 6.77816E-007,   169.03,    5.19021,   155.57,    5.19021,    35.57,    5.19021,   -84.43,          0,     0.00, 6.8028E-007,   -11.01
Line.L_BSB_MT_2704,    4.51862,   -24.78,    4.51862,  -144.78,    4.51862,    95.22,          0,     0.00, 3.66405E-006,  -107.14,    4.51862,   155.22,    4.51862,    35.22,    4.51862,   -84.78,          0,     0.00, 3.66634E-006,    72.92
Line.L_BSB_MT_2706,    1.31857,   155.57,    1.31857,    35.57,    1.31857,   -84.43,          0,     0.00, 1.71064E-006,    82.02,    1.31857,   -24.43,    1.31857,  -144.43,    1.31857,    95.57,          0,     0.00, 1.70807E-006,   -98.04
Line.L_BSB_MT_2035,   0.384461,   -24.43,   0.384461,  -144.43,   0.384461,    95.57,          0,     0.00, 2.08718E-008,    51.34,   0.384461,   155.57,   0.384461,    35.57,   0.384461,   -84.43,          0,     0.00, 2.44461E-008,  -130.36
Line.L_BSB_MT_2036,   0.384461,   -24.43,   0.384461,  -144.43,   0.384461,    95.57,          0,     0.00, 1.77013E-008,    54.64,   0.384461,   155.57,   0.384461,    35.57,   0.384461,   -84.43,          0,     0.00, 1.8451E-008,  -132.95
Line.L_BSB_MT_2037,   0.384461,   -24.43,   0.384461,  -144.43,   0.384461,    95.57,          0,     0.00, 1.35042E-008,    46.40,   0.384461,   155.57,   0.384461,    35.57,   0.384461,   -84.43,          0,     0.00, 1.0861E-008,  -149.04
Line.L_BSB_MT_2038,   0.384461,   -24.43,   0.384461,  -144.43,   0.384461,    95.57,          0,     0.00, 9.59985E-009,    50.91,   0.384461,   155.57,   0.384461,    35.57,   0.384461,   -84.43,          0,     0.00, 6.92255E-009,  -160.35
Line.L_BSB_MT_2040,    0.96115,   -24.43,   0.961151,  -144.43,    0.96115,    95.57,          0,     0.00, 1.18988E-006,  -115.67,    0.96115,   155.57,   0.961151,    35.57,    0.96115,   -84.43,          0,     0.00, 1.19115E-006,    64.41
Line.L_BSB_MT_20401,   0.961149,   155.57,    0.96115,    35.57,    0.96115,   -84.43,          0,     0.00, 7.93168E-007,    43.48,   0.961149,   -24.43,    0.96115,  -144.43,    0.96115,    95.57,          0,     0.00, 7.95399E-007,  -136.30
Line.L_BSB_MT_2041,    0.96115,   -24.43,   0.961151,  -144.43,    0.96115,    95.57,          0,     0.00, 1.19742E-006,  -115.55,    0.96115,   155.57,   0.961151,    35.57,    0.96115,   -84.43,          0,     0.00, 1.19797E-006,    64.24
Line.L_BSB_MT_2042,    0.96115,   -24.43,   0.961151,  -144.43,    0.96115,    95.57,          0,     0.00, 1.19685E-006,  -116.11,    0.96115,   155.57,   0.961151,    35.57,    0.96115,   -84.43,          0,     0.00, 1.19538E-006,    63.83
Line.L_BSB_MT_2043,    0.96115,   -24.43,   0.961151,  -144.43,    0.96115,    95.57,          0,     0.00, 1.20567E-006,  -115.80,    0.96115,   155.57,   0.961151,    35.57,    0.96115,   -84.43,          0,     0.00, 1.20713E-006,    64.21
Line.L_BSB_MT_2044,    0.96115,   -24.43,   0.961151,  -144.43,    0.96115,    95.57,          0,     0.00, 1.20272E-006,  -115.92,    0.96115,   155.57,   0.961151,    35.57,    0.96115,   -84.43,          0,     0.00, 1.20417E-006,    64.04
Line.L_BSB_MT_2045,    0.96115,   -24.43,   0.961151,  -144.43,    0.96115,    95.57,          0,     0.00, 1.20496E-006,  -116.19,    0.96115,   155.57,   0.961151,    35.57,    0.96115,   -84.43,          0,     0.00, 1.20456E-006,    63.90
Line.L_BSB_MT_2046,    0.96115,   -24.43,   0.961151,  -144.43,    0.96115,    95.57,          0,     0.00, 1.20976E-006,  -116.10,    0.96115,   155.57,   0.961151,    35.57,    0.96115,   -84.43,          0,     0.00, 1.20725E-006,    63.79
Line.L_BSB_MT_2047,    1.15295,   -24.42,    1.15295,  -144.42,    1.15295,    95.58,          0,     0.00, 4.21674E-009,    96.34,    1.15295,   155.58,    1.15295,    35.58,    1.15295,   -84.42,          0,     0.00, 4.21674E-009,   -83.66
Line.L_BSB_MT_2048,    17.5844,   -24.33,    17.5844,  -144.33,    17.5844,    95.67,          0,     0.00, 6.72774E-006,  -130.46,    17.5844,   155.67,    17.5844,    35.67,    17.5844,   -84.33,          0,     0.00, 6.72845E-006,    49.55
Line.L_BSB_MT_2049,    17.5844,   155.67,    17.5844,    35.67,    17.5844,   -84.33,          0,     0.00, 3.7971E-006,    45.67,    17.5844,   -24.33,    17.5844,  -144.33,    17.5844,    95.67,          0,     0.00, 3.79279E-006,  -134.36
Line.L_BSB_MT_2050,    15.6625,   155.68,    15.6625,    35.68,    15.6625,   -84.32,          0,     0.00, 2.80834E-006,    64.27,    15.6625,   -24.32,    15.6625,  -144.32,    15.6625,    95.68,          0,     0.00, 2.81083E-006,  -115.75
Line.L_BSB_MT_7575,    5.19021,   -24.43,    5.19021,  -144.43,    5.19021,    95.57,          0,     0.00, 6.78522E-007,   169.56,    5.19021,   155.57,    5.19021,    35.57,    5.19021,   -84.43,          0,     0.00, 6.81395E-007,   -10.23
Line.L_BSB_MT_7579,    5.70281,   -24.43,    5.70282,  -144.43,    5.70282,    95.57,          0,     0.00, 4.38775E-006,  -121.64,    5.70281,   155.57,    5.70282,    35.57,    5.70282,   -84.43,          0,     0.00, 4.38638E-006,    58.38
Line.L_BSB_MT_6303, 4.30201E-007,   -47.76, 1.34958E-006,   170.33, 8.50353E-007,    50.64,          0,     0.00, 7.56368E-007,   131.58, 4.29856E-007,   132.28, 1.34867E-006,    -9.68, 8.49173E-007,  -129.26,          0,     0.00, 7.57334E-007,   -48.39
Line.L_BSB_MT_6304,    1.31857,   -24.43,    1.31857,  -144.43,    1.31857,    95.57,          0,     0.00, 1.70557E-006,   -98.00,    1.31857,   155.57,    1.31857,    35.57,    1.31857,   -84.43,          0,     0.00, 1.70275E-006,    82.11
Line.L_BSB_MT_6305,    2.88312,   -24.43,    2.88312,  -144.43,    2.88312,    95.57,          0,     0.00, 3.86109E-006,  -103.03,    2.88312,   155.57,    2.88312,    35.57,    2.88312,   -84.43,          0,     0.00, 3.85994E-006,    76.95
Line.L_BSB_MT_63051,    2.88312,   -24.43,    2.88312,  -144.43,    2.88312,    95.57,          0,     0.00, 3.86483E-006,  -103.12,    2.88312,   155.57,    2.88312,    35.57,    2.88312,   -84.43,          0,     0.00, 3.86686E-006,    76.87
Line.L_BSB_MT_3728, 1.31709E-009,   -45.00, 1.39698E-009,   -90.00, 2.63418E-009,    45.00,          0,     0.00, 2.83251E-009,    -9.46, 1.31709E-009,   135.00, 1.04125E-009,  -153.43, 2.0825E-009,  -116.57,          0,     0.00, 3.12375E-009,  -153.43
Line.L_BSB_MT_3439,    4.51862,   -24.78,    4.51862,  -144.78,    4.51862,    95.22,          0,     0.00, 2.71271E-006,  -140.68,    4.51862,   155.22,    4.51862,    35.22,    4.51862,   -84.78,          0,     0.00, 2.71042E-006,    39.38
Line.L_BSB_MT_3445,    7.40158,   -24.64,    7.40158,  -144.64,    7.40157,    95.36,          0,     0.00, 6.43916E-006,  -115.50,    7.40158,   155.36,    7.40158,    35.36,    7.40157,   -84.64,          0,     0.00, 6.43624E-006,    64.50
Line.L_BSB_MT_2051,    15.6625,   155.68,    15.6625,    35.68,    15.6625,   -84.32,          0,     0.00, 2.81276E-006,    64.33,    15.6625,   -24.32,    15.6625,  -144.32,    15.6625,    95.68,          0,     0.00, 2.81333E-006,  -115.74
Line.L_BSB_MT_7581,    19.9716,   154.92,    19.9716,    34.92,    19.9716,   -85.08,          0,     0.00, 3.33649E-006,   103.77,    19.9716,   -25.08,    19.9716,  -145.08,    19.9716,    94.92,          0,     0.00, 3.33751E-006,   -76.22
Line.L_BSB_MT_7624, 6.33368E-009,   107.10, 1.86265E-009,     0.00, 7.27386E-009,    50.19,          0,     0.00, 1.25383E-008,    68.20, 7.95722E-009,   -69.44, 7.46512E-009,  -176.42, 5.26836E-009,  -135.00,          0,     0.00, 1.43451E-008,  -125.75
Line.L_BSB_MT_7626,    1.56455,   -24.43,    1.56455,  -144.43,    1.56455,    95.57,          0,     0.00, 2.13605E-006,  -106.33,    1.56455,   155.57,    1.56455,    35.57,    1.56455,   -84.43,          0,     0.00, 2.13773E-006,    73.60
Line.L_BSB_MT_7663,    1.92234,   -24.43,    1.92234,  -144.43,    1.92234,    95.57,          0,     0.00, 8.58637E-009,    12.53,    1.92234,   155.57,    1.92234,    35.57,    1.92234,   -84.43,          0,     0.00, 8.43348E-009,   173.66
Line.L_BSB_MT_5378,    59.4576,   155.13,    59.4577,    35.13,    59.4576,   -84.87,          0,     0.00, 2.21386E-005,    64.51,    59.4576,   -24.87,    59.4577,  -144.87,    59.4576,    95.13,          0,     0.00, 2.21381E-005,  -115.49
Line.L_BSB_MT_2083,    4.03611,   155.57,    4.03611,    35.57,    4.03611,   -84.43,          0,     0.00, 2.0437E-006,    -4.02,    4.03611,   -24.43,    4.03611,  -144.43,    4.03611,    95.57,          0,     0.00, 2.04715E-006,   175.90
Line.L_BSB_MT_2084,    4.03611,   155.57,    4.03611,    35.57,    4.03611,   -84.43,          0,     0.00, 2.04122E-006,    -4.15,    4.03611,   -24.43,    4.03611,  -144.43,    4.03611,    95.57,          0,     0.00, 2.04268E-006,   175.83
Line.L_BSB_MT_2085,    2.88294,   -24.43,    2.88294,  -144.43,    2.88294,    95.57,          0,     0.00, 5.6073E-009,    -4.76,    2.88294,   155.57,    2.88294,    35.57,    2.88294,   -84.43,          0,     0.00, 4.65661E-009,   126.87
Line.L_BSB_MT_2086,    1.15318,   155.57,    1.15318,    35.57,    1.15317,   -84.43,          0,     0.00, 9.35713E-007,    28.73,    1.15318,   -24.43,    1.15318,  -144.43,    1.15317,    95.57,          0,     0.00, 9.36244E-007,  -151.09
Line.L_BSB_MT_2087,    1.15318,   155.57,    1.15318,    35.57,    1.15317,   -84.43,          0,     0.00, 9.46118E-007,    28.71,    1.15318,   -24.43,    1.15318,  -144.43,    1.15317,    95.57,          0,     0.00, 9.45301E-007,  -151.26
Line.L_BSB_MT_2088,    1.15318,   155.57,    1.15318,    35.57,    1.15317,   -84.43,          0,     0.00, 9.4935E-007,    28.54,    1.15318,   -24.43,    1.15318,  -144.43,    1.15317,    95.57,          0,     0.00, 9.47083E-007,  -151.42
Line.L_BSB_MT_7810,    16.8522,   -24.43,    16.8522,  -144.43,    16.8522,    95.57,          0,     0.00, 1.14119E-005,  -124.30,    16.8522,   155.57,    16.8522,    35.57,    16.8522,   -84.43,          0,     0.00, 1.14101E-005,    55.70
Line.L_BSB_MT_2743,    2.88312,   -24.43,    2.88312,  -144.43,    2.88312,    95.57,          0,     0.00, 2.58054E-006,  -103.12,    2.88312,   155.57,    2.88312,    35.57,    2.88312,   -84.43,          0,     0.00, 2.57964E-006,    76.87
Line.L_BSB_MT_2744, 3.69905E-007,   108.34, 1.65891E-006,   -48.25, 2.256E-006,  -133.81,          0,     0.00, 2.57918E-006,  -102.85, 3.71378E-007,   -71.43, 1.65795E-006,   131.73, 2.25734E-006,    46.22,          0,     0.00, 2.58026E-006,    77.09
Line.L_BSB_MT_2745, 3.71094E-007,   108.89, 1.65393E-006,   -48.23, 2.26256E-006,  -133.85,          0,     0.00, 2.58145E-006,  -103.12, 3.69912E-007,   -71.20, 1.65296E-006,   131.76, 2.26288E-006,    46.14,          0,     0.00, 2.58201E-006,    76.88
Line.L_BSB_MT_2746, 1.93237E-007,   109.57, 8.27561E-007,   -48.35, 1.12768E-006,  -133.80,          0,     0.00, 1.28468E-006,  -103.29, 1.91301E-007,   -70.82, 8.30115E-007,   131.75, 1.12934E-006,    46.25,          0,     0.00, 1.28781E-006,    76.94
Line.L_BSB_MT_2747, 1.91247E-007,   110.38, 8.24583E-007,   -48.34, 1.12628E-006,  -133.99,          0,     0.00, 1.28281E-006,  -103.56, 1.9081E-007,   -69.57, 8.24235E-007,   131.68, 1.12693E-006,    45.97,          0,     0.00, 1.28303E-006,    76.40
Line.L_BSB_MT_2748, 1.84842E-007,   109.58, 8.25475E-007,   -48.22, 1.128E-006,  -133.81,          0,     0.00, 1.28914E-006,  -103.13, 1.87066E-007,   -70.21, 8.271E-007,   131.80, 1.12864E-006,    46.15,          0,     0.00, 1.28844E-006,    76.82
Line.L_BSB_MT_2749, 1.86909E-007,   109.65, 8.25402E-007,   -48.13, 1.12527E-006,  -134.08,          0,     0.00, 1.2814E-006,  -103.30, 1.87662E-007,   -70.13, 8.25749E-007,   131.85, 1.12527E-006,    45.92,          0,     0.00, 1.28162E-006,    76.66
Line.L_BSB_MT_2750, 1.91997E-009,    75.96, 3.39007E-009,    15.95, 3.97861E-009,    69.44,          0,     0.00, 8.29086E-009,    51.84, 2.83251E-009,   -99.46, 4.19095E-009,   180.00, 3.83994E-009,  -104.04,          0,     0.00, 8.58637E-009,  -130.60
Line.L_BSB_MT_6543,    1.19509,   -13.40,    1.19508,  -133.40,    1.19509,   106.60,          0,     0.00, 3.49074E-006,    29.58,    1.19509,   166.60,    1.19508,    46.60,    1.19509,   -73.40,          0,     0.00, 3.49189E-006,  -150.38
Line.L_BSB_MT_6556,    3.39567,   -24.43,    3.39567,  -144.43,    3.39567,    95.57,          0,     0.00, 7.08928E-006,  -123.50,    3.39567,   155.57,    3.39567,    35.57,    3.39567,   -84.43,          0,     0.00, 7.08851E-006,    56.51
Line.L_BSB_MT_7870, 2.0825E-009,   -26.57, 3.39007E-009,  -164.05, 4.65661E-010,   180.00,          0,     0.00, 2.63418E-009,  -135.00, 1.67897E-009,   123.69, 3.25963E-009,     0.00, 1.39698E-009,     0.00,          0,     0.00, 3.97861E-009,    20.56
Line.L_BSB_MT_5431, 1.97783E-007,   109.25, 8.27448E-007,   -48.22, 1.12569E-006,  -133.83,          0,     0.00, 1.27655E-006,  -103.29, 1.96598E-007,   -70.92, 8.30005E-007,   131.88, 1.12601E-006,    46.16,          0,     0.00, 1.27762E-006,    76.88
Line.L_BSB_MT_5432, 6.58545E-010,   135.00, 2.32831E-009,    36.87, 4.65661E-009,    53.13,          0,     0.00, 6.98492E-009,    53.13, 1.04125E-009,  -153.43, 1.39698E-009,   180.00, 2.0825E-009,  -116.57,          0,     0.00, 4.00577E-009,  -144.46
Line.L_BSB_MT_5531,    5.19021,   -24.43,    5.19021,  -144.43,    5.19021,    95.57,          0,     0.00, 6.79949E-007,   169.34,    5.19021,   155.57,    5.19021,    35.57,    5.19021,   -84.43,          0,     0.00, 6.81581E-007,   -10.75
Line.L_BSB_MT_5532,   0.384461,   -24.43,   0.384461,  -144.43,   0.384461,    95.57,          0,     0.00, 4.74883E-009,   168.69,   0.384461,   155.57,   0.384461,    35.57,   0.384461,   -84.43,          0,     0.00, 1.04125E-009,    26.57
Line.L_BSB_MT_5533,    0.96115,   -24.43,   0.961151,  -144.43,    0.96115,    95.57,          0,     0.00, 1.20602E-006,  -116.09,    0.96115,   155.57,   0.961151,    35.57,    0.96115,   -84.43,          0,     0.00, 1.20371E-006,    63.78
Line.L_BSB_MT_5534,    4.03611,   155.57,    4.03611,    35.57,    4.03611,   -84.43,          0,     0.00, 2.03445E-006,    -4.41,    4.03611,   -24.43,    4.03611,  -144.43,    4.03611,    95.57,          0,     0.00, 2.03666E-006,   175.63
Line.L_BSB_MT_5537, 1.04125E-009,   153.43, 1.67897E-009,   -56.31, 1.39698E-009,     0.00,          0,     0.00, 1.67897E-009,   -33.69, 9.31323E-010,   -90.00, 9.31323E-010,   180.00, 1.86265E-009,   180.00,          0,     0.00, 2.9451E-009,  -161.57
Line.L_BSB_MT_5538, 1.97563E-009,   -45.00, 2.50766E-009,   158.20, 5.75991E-009,   -75.96,          0,     0.00, 6.07148E-009,   -85.60, 3.12375E-009,   116.57, 1.47255E-009,    18.43, 6.0536E-009,   112.62,          0,     0.00, 9.14879E-009,   104.74
Line.L_BSB_MT_5545,    16.0834,   -24.43,    16.0834,  -144.43,    16.0834,    95.57,          0,     0.00, 4.28347E-006,   -93.65,    16.0834,   155.57,    16.0834,    35.57,    16.0834,   -84.43,          0,     0.00, 4.28527E-006,    86.36
Line.L_BSB_MT_5546,     9.9961,   155.57,     9.9961,    35.57,     9.9961,   -84.43,          0,     0.00, 1.90547E-006,   113.52,     9.9961,   -24.43,     9.9961,  -144.43,     9.9961,    95.57,          0,     0.00, 1.90649E-006,   -66.58
Line.L_BSB_MT_5548,    7.68934,   -24.43,    7.68934,  -144.43,    7.68934,    95.57,          0,     0.00, 2.29757E-006,    -5.77,    7.68934,   155.57,    7.68934,    35.57,    7.68934,   -84.43,          0,     0.00, 2.2998E-006,   174.14
Line.L_BSB_MT_5552,    20.2479,   -24.43,    20.2479,  -144.43,    20.2479,    95.57,          0,     0.00, 2.09504E-005,  -123.33,    20.2479,   155.57,    20.2479,    35.57,    20.2479,   -84.43,          0,     0.00, 2.09511E-005,    56.68
Line.L_BSB_MT_5553,    1.63577,   -25.41,    1.63578,  -145.41,    1.63577,    94.59,          0,     0.00, 2.86734E-006,  -134.09,    1.63577,   154.59,    1.63578,    34.59,    1.63577,   -85.41,          0,     0.00, 2.86998E-006,    45.93
Line.L_BSB_MT_5554,     33.445,   -25.21,     33.445,  -145.21,     33.445,    94.79,          0,     0.00, 4.09093E-006,   -24.38,     33.445,   154.79,     33.445,    34.79,     33.445,   -85.21,          0,     0.00, 4.09062E-006,   155.59
Line.L_BSB_MT_5555,    6.51954,   153.56,    6.51954,    33.56,    6.51954,   -86.44,          0,     0.00, 3.17691E-006,    85.36,    6.51954,   -26.44,    6.51954,  -146.44,    6.51954,    93.56,          0,     0.00, 3.17637E-006,   -94.62
Line.L_BSB_MT_5556, 1.67897E-009,   123.69, 1.91997E-009,   165.96, 1.91997E-009,   -75.96,          0,     0.00, 2.32831E-009,   180.00, 1.86265E-009,   180.00,          0,     0.00, 1.91997E-009,    75.96,          0,     0.00, 2.32831E-009,   126.87
Line.L_BSB_MT_5557,    66.0021,   -24.65,    66.0021,  -144.65,    66.0021,    95.35,          0,     0.00, 1.57093E-005,  -119.84,    66.0021,   155.35,    66.0021,    35.35,    66.0021,   -84.65,          0,     0.00, 1.57097E-005,    60.16
Line.L_BSB_MT_2016,     9.9961,   155.57,     9.9961,    35.57,     9.9961,   -84.43,          0,     0.00, 1.90251E-006,   113.10,     9.9961,   -24.43,     9.9961,  -144.43,     9.9961,    95.57,          0,     0.00, 1.89975E-006,   -66.77
Line.L_BSB_MT_2018,    72.9197,   -24.63,    72.9197,  -144.63,    72.9197,    95.37,          0,     0.00, 1.93674E-005,  -116.80,    72.9197,   155.37,    72.9197,    35.37,    72.9197,   -84.63,          0,     0.00, 1.9371E-005,    63.20
Line.L_BSB_MT_2019,    0.38446,   155.57,    0.38446,    35.57,    0.38446,   -84.43,          0,     0.00, 1.28842E-006,    76.73,    0.38446,   -24.43,    0.38446,  -144.43,    0.38446,    95.57,          0,     0.00, 1.28522E-006,  -103.39
Line.L_BSB_MT_2863,    1.56455,   -24.43,    1.56455,  -144.43,    1.56455,    95.57,          0,     0.00, 2.11967E-006,  -106.34,    1.56455,   155.57,    1.56455,    35.57,    1.56455,   -84.43,          0,     0.00, 2.1182E-006,    73.66
Line.L_BSB_MT_2864,    1.56455,   -24.43,    1.56455,  -144.43,    1.56455,    95.57,          0,     0.00, 2.11305E-006,  -106.45,    1.56455,   155.57,    1.56455,    35.57,    1.56455,   -84.43,          0,     0.00, 2.11176E-006,    73.58
Line.L_BSB_MT_2870,    1.31857,   155.57,    1.31857,    35.57,    1.31857,   -84.43,          0,     0.00, 1.69362E-006,    82.51,    1.31857,   -24.43,    1.31857,  -144.43,    1.31857,    95.57,          0,     0.00, 1.69171E-006,   -97.48
Line.L_BSB_MT_2871,    1.31857,   -24.43,    1.31857,  -144.43,    1.31857,    95.57,          0,     0.00, 1.69189E-006,   -97.53,    1.31857,   155.57,    1.31857,    35.57,    1.31857,   -84.43,          0,     0.00, 1.69405E-006,    82.40
Line.L_BSB_MT_2872,    1.31857,   -24.43,    1.31857,  -144.43,    1.31857,    95.57,          0,     0.00, 1.69633E-006,   -97.70,    1.31857,   155.57,    1.31857,    35.57,    1.31857,   -84.43,          0,     0.00, 1.69356E-006,    82.29
Line.L_BSB_MT_2873,    1.56455,   -24.43,    1.56455,  -144.43,    1.56455,    95.57,          0,     0.00, 2.12398E-006,  -106.43,    1.56455,   155.57,    1.56455,    35.57,    1.56455,   -84.43,          0,     0.00, 2.12759E-006,    73.51
Line.L_BSB_MT_2874,    1.56455,   -24.43,    1.56455,  -144.43,    1.56455,    95.57,          0,     0.00, 2.12175E-006,  -106.45,    1.56455,   155.57,    1.56455,    35.57,    1.56455,   -84.43,          0,     0.00, 2.12412E-006,    73.56
Line.L_BSB_MT_2875,    1.56455,   -24.43,    1.56455,  -144.43,    1.56455,    95.57,          0,     0.00, 2.13503E-006,  -106.55,    1.56455,   155.57,    1.56455,    35.57,    1.56455,   -84.43,          0,     0.00, 2.13391E-006,    73.38
Line.L_BSB_MT_2876,    1.56455,   -24.43,    1.56455,  -144.43,    1.56455,    95.57,          0,     0.00, 2.14425E-006,  -106.72,    1.56455,   155.57,    1.56455,    35.57,    1.56455,   -84.43,          0,     0.00, 2.14367E-006,    73.29
Line.L_BSB_MT_28761,    1.56455,   -24.43,    1.56455,  -144.43,    1.56455,    95.57,          0,     0.00, 2.15185E-006,  -106.92,    1.56455,   155.57,    1.56455,    35.57,    1.56455,   -84.43,          0,     0.00, 2.15127E-006,    73.09
Line.L_BSB_MT_2877, 2.63418E-009,   -45.00, 2.98169E-009,   128.66, 3.75428E-009,   -82.87,          0,     0.00, 3.29272E-009,   -81.87, 4.39304E-009,   122.01, 5.30936E-009,   -15.26, 5.6073E-009,    94.76,          0,     0.00, 8.25154E-009,    73.61
Line.L_BSB_MT_28771, 1.67897E-009,   123.69, 4.39304E-009,    32.01, 1.86265E-009,    90.00,          0,     0.00, 6.2475E-009,    63.43, 1.91997E-009,   -14.04, 3.95127E-009,  -135.00, 1.91997E-009,  -104.04,          0,     0.00, 5.30936E-009,  -105.26
Line.L_BSB_MT_2878, 2.98169E-009,   -51.34, 1.91997E-009,   -14.04, 1.91997E-009,   -75.96,          0,     0.00, 6.26483E-009,   -48.01, 1.91997E-009,  -165.96, 2.79397E-009,   180.00, 1.39698E-009,   180.00,          0,     0.00, 6.07148E-009,  -175.60
Line.L_BSB_MT_2879, 4.34317E-007,   -48.17, 1.35142E-006,   170.34, 8.45648E-007,    51.03,          0,     0.00, 7.58474E-007,   132.34, 4.33624E-007,   131.91, 1.35257E-006,    -9.71, 8.46804E-007,  -128.86,          0,     0.00, 7.62515E-007,   -47.80
Line.L_BSB_MT_2882,   0.512549,   -24.43,   0.512548,  -144.43,   0.512549,    95.57,          0,     0.00, 7.59663E-007,   -45.52,   0.512549,   155.57,   0.512548,    35.57,   0.512549,   -84.43,          0,     0.00, 7.57336E-007,   134.70
Line.L_BSB_MT_2883,   0.512549,   -24.43,   0.512548,  -144.43,   0.512549,    95.57,          0,     0.00, 7.61612E-007,   -45.22,   0.512549,   155.57,   0.512548,    35.57,   0.512549,   -84.43,          0,     0.00, 7.58019E-007,   134.45
Line.L_BSB_MT_2884,   0.512549,   -24.43,   0.512548,  -144.43,   0.512549,    95.57,          0,     0.00, 7.68698E-007,   -46.23,   0.512549,   155.57,   0.512548,    35.57,   0.512549,   -84.43,          0,     0.00, 7.71055E-007,   133.61
Line.L_BSB_MT_2885,   0.512549,   -24.43,   0.512548,  -144.43,   0.512549,    95.57,          0,     0.00, 7.60139E-007,   -46.24,   0.512549,   155.57,   0.512548,    35.57,   0.512549,   -84.43,          0,     0.00, 7.63081E-007,   133.84
Line.L_BSB_MT_2886,   0.512549,   155.57,   0.512548,    35.57,   0.512549,   -84.43,          0,     0.00, 7.62074E-007,   133.91,   0.512549,   -24.43,   0.512548,  -144.43,   0.512549,    95.57,          0,     0.00, 7.58782E-007,   -46.09
Line.L_BSB_MT_2887,   0.512549,   155.57,   0.512548,    35.57,   0.512549,   -84.43,          0,     0.00, 7.62802E-007,   133.66,   0.512549,   -24.43,   0.512548,  -144.43,   0.512549,    95.57,          0,     0.00, 7.62422E-007,   -46.16
Line.L_BSB_MT_2888,   0.512549,   155.57,   0.512548,    35.57,   0.512549,   -84.43,          0,     0.00, 7.65705E-007,   132.98,   0.512549,   -24.43,   0.512548,  -144.43,   0.512549,    95.57,          0,     0.00, 7.66681E-007,   -46.99
Line.L_BSB_MT_2890,    1.31857,   -24.43,    1.31857,  -144.43,    1.31857,    95.57,          0,     0.00, 1.71031E-006,   -98.12,    1.31857,   155.57,    1.31857,    35.57,    1.31857,   -84.43,          0,     0.00, 1.70939E-006,    81.98
Line.L_BSB_MT_2891,    1.31857,   155.57,    1.31857,    35.57,    1.31857,   -84.43,          0,     0.00, 1.70314E-006,    82.13,    1.31857,   -24.43,    1.31857,  -144.43,    1.31857,    95.57,          0,     0.00, 1.70841E-006,   -97.90
Line.L_BSB_MT_6702,    3.39567,   -24.43,    3.39567,  -144.43,    3.39567,    95.57,          0,     0.00, 7.08595E-006,  -123.43,    3.39567,   155.57,    3.39567,    35.57,    3.39567,   -84.43,          0,     0.00, 7.08697E-006,    56.54
Line.L_BSB_MT_6703,    3.39567,   -24.43,    3.39567,  -144.43,    3.39567,    95.57,          0,     0.00, 7.08261E-006,  -123.41,    3.39567,   155.57,    3.39567,    35.57,    3.39567,   -84.43,          0,     0.00, 7.08092E-006,    56.58
Line.L_BSB_MT_6704,    3.39567,   -24.43,    3.39567,  -144.43,    3.39567,    95.57,          0,     0.00, 7.08413E-006,  -123.45,    3.39567,   155.57,    3.39567,    35.57,    3.39567,   -84.43,          0,     0.00, 7.08131E-006,    56.58
Line.L_BSB_MT_6705,    3.39567,   -24.43,    3.39567,  -144.43,    3.39567,    95.57,          0,     0.00, 7.07963E-006,  -123.42,    3.39567,   155.57,    3.39567,    35.57,    3.39567,   -84.43,          0,     0.00, 7.07613E-006,    56.56
Line.L_BSB_MT_4159,    45.8237,   -24.75,    45.8238,  -144.75,    45.8238,    95.25,          0,     0.00, 1.70793E-005,  -116.25,    45.8237,   155.25,    45.8238,    35.25,    45.8238,   -84.75,          0,     0.00, 1.70818E-005,    63.76
Line.L_BSB_MT_2109,    20.2479,   155.57,    20.2479,    35.57,    20.2479,   -84.43,          0,     0.00, 2.09505E-005,    56.69,    20.2479,   -24.43,    20.2479,  -144.43,    20.2479,    95.57,          0,     0.00, 2.09499E-005,  -123.31
Line.L_BSB_MT_2110,    27.6594,   155.10,    27.6594,    35.10,    27.6594,   -84.90,          0,     0.00, 7.757E-006,    84.24,    27.6594,   -24.90,    27.6594,  -144.90,    27.6594,    95.10,          0,     0.00, 7.75987E-006,   -95.76
Line.L_BSB_MT_2111,     84.728,   155.28,     84.728,    35.28,     84.728,   -84.72,          0,     0.00, 3.03333E-005,    60.72,     84.728,   -24.72,     84.728,  -144.72,     84.728,    95.28,          0,     0.00, 3.03337E-005,  -119.27
Line.L_BSB_MT_5604,    25.7375,   155.06,    25.7375,    35.07,    25.7375,   -84.94,          0,     0.00, 6.48327E-006,    85.78,    25.7375,   -24.94,    25.7375,  -144.93,    25.7375,    95.06,          0,     0.00, 6.48184E-006,   -94.21
Line.L_BSB_MT_6806, 8.58637E-009,   130.60, 2.98169E-009,   -51.34, 9.04151E-009,    55.49,          0,     0.00, 1.17251E-008,    83.16, 1.02234E-008,   -59.93, 5.8902E-009,   161.57, 8.78608E-009,  -122.01,          0,     0.00, 1.53174E-008,  -109.54
Line.L_BSB_MT_2898,    1.31857,   -24.43,    1.31857,  -144.43,    1.31857,    95.57,          0,     0.00, 1.70719E-006,   -97.71,    1.31857,   155.57,    1.31857,    35.57,    1.31857,   -84.43,          0,     0.00, 1.7074E-006,    82.35
Line.L_BSB_MT_2899,    1.31857,   155.57,    1.31857,    35.57,    1.31857,   -84.43,          0,     0.00, 1.71215E-006,    82.00,    1.31857,   -24.43,    1.31857,  -144.43,    1.31857,    95.57,          0,     0.00, 1.71328E-006,   -97.94
Line.L_BSB_MT_7954,     19.787,   -26.41,     19.787,  -146.41,     19.787,    93.59,          0,     0.00, 8.95717E-009,    81.03,     19.787,   153.59,     19.787,    33.59,     19.787,   -86.41,          0,     0.00, 9.78997E-009,   -92.73
Line.L_BSB_MT_8036,    3.84428,   -24.43,    3.84428,  -144.43,    3.84428,    95.57,          0,     0.00, 2.50766E-009,   158.20,    3.84428,   155.57,    3.84428,    35.57,    3.84428,   -84.43,          0,     0.00, 1.47255E-009,   -18.43
Line.L_BSB_MT_4202,   0.384459,   155.57,   0.384459,    35.57,   0.384461,   -84.43,          0,     0.00, 6.74677E-007,   -80.75,   0.384459,   -24.43,   0.384459,  -144.43,   0.384461,    95.57,          0,     0.00, 6.72032E-007,    98.85
Line.L_BSB_MT_4203,    27.6594,   155.10,    27.6594,    35.10,    27.6594,   -84.90,          0,     0.00, 6.47849E-006,    85.80,    27.6594,   -24.90,    27.6594,  -144.90,    27.6594,    95.10,          0,     0.00, 6.47898E-006,   -94.21
Line.L_BSB_MT_4226,    16.8522,   -24.43,    16.8522,  -144.43,    16.8522,    95.57,          0,     0.00, 4.95061E-006,  -105.21,    16.8522,   155.57,    16.8522,    35.57,    16.8522,   -84.43,          0,     0.00, 4.9482E-006,    74.81
Line.L_BSB_MT_4227,    16.0834,   -24.43,    16.0834,  -144.43,    16.0834,    95.57,          0,     0.00, 4.28788E-006,   -93.60,    16.0834,   155.57,    16.0834,    35.57,    16.0834,   -84.43,          0,     0.00, 4.28599E-006,    86.41
Line.L_BSB_MT_4228,    5.70281,   -24.43,    5.70282,  -144.43,    5.70282,    95.57,          0,     0.00, 4.37668E-006,  -121.49,    5.70281,   155.57,    5.70282,    35.57,    5.70282,   -84.43,          0,     0.00, 4.3769E-006,    58.54
Line.L_BSB_MT_4230,    5.70281,   -24.43,    5.70282,  -144.43,    5.70282,    95.57,          0,     0.00, 4.3825E-006,  -121.67,    5.70281,   155.57,    5.70282,    35.57,    5.70282,   -84.43,          0,     0.00, 4.38162E-006,    58.34
Line.L_BSB_MT_4231, 9.31323E-010,    90.00, 9.31323E-010,   -90.00, 2.32831E-009,   -53.13,          0,     0.00, 2.32831E-009,   -53.13, 2.9451E-009,  -161.57, 4.65661E-010,    90.00, 4.65661E-010,   180.00,          0,     0.00, 3.29272E-009,  -171.87
Line.L_BSB_MT_4247,    20.9531,   -25.68,    20.9531,  -145.68,    20.9531,    94.32,          0,     0.00, 2.79563E-006,    11.55,    20.9531,   154.32,    20.9531,    34.32,    20.9531,   -85.68,          0,     0.00, 2.79891E-006,  -168.45
Line.L_BSB_MT_4248,    27.6594,   -24.90,    27.6594,  -144.90,    27.6594,    95.10,          0,     0.00, 9.57804E-006,   -93.51,    27.6594,   155.10,    27.6594,    35.10,    27.6594,   -84.90,          0,     0.00, 9.58057E-006,    86.47
Line.L_BSB_MT_4249,    58.3156,   -24.68,    58.3156,  -144.68,    58.3156,    95.32,          0,     0.00, 1.63546E-005,  -121.35,    58.3156,   155.32,    58.3156,    35.32,    58.3156,   -84.68,          0,     0.00, 1.63535E-005,    58.64
Line.L_BSB_MT_4250,    78.9633,   155.26,    78.9633,    35.26,    78.9633,   -84.74,          0,     0.00, 3.03462E-005,    60.72,    78.9633,   -24.74,    78.9633,  -144.74,    78.9633,    95.26,          0,     0.00, 3.03488E-005,  -119.27
Line.L_BSB_MT_4252,    5.19021,   -24.43,    5.19021,  -144.43,    5.19021,    95.57,          0,     0.00, 6.77627E-007,   168.91,    5.19021,   155.57,    5.19021,    35.57,    5.19021,   -84.43,          0,     0.00, 6.78908E-007,   -11.03
Line.L_BSB_MT_4283,    2.88312,   -24.43,    2.88312,  -144.43,    2.88312,    95.57,          0,     0.00, 2.57366E-006,  -102.97,    2.88312,   155.57,    2.88312,    35.57,    2.88312,   -84.43,          0,     0.00, 2.57321E-006,    77.03
Line.L_BSB_MT_4295, 4.31575E-007,   -48.67, 1.35624E-006,   170.43, 8.42443E-007,    51.10,          0,     0.00, 7.64279E-007,   133.22, 4.31311E-007,   131.19, 1.357E-006,    -9.52, 8.41858E-007,  -128.85,          0,     0.00, 7.65181E-007,   -46.55
Line.L_BSB_MT_5647,    1.31857,   -24.43,    1.31857,  -144.43,    1.31857,    95.57,          0,     0.00, 1.6962E-006,   -97.67,    1.31857,   155.57,    1.31857,    35.57,    1.31857,   -84.43,          0,     0.00, 1.69205E-006,    82.31
Line.L_BSB_MT_5648, 4.165E-009,   -63.43, 4.67984E-009,   174.29, 1.91997E-009,  -104.04,          0,     0.00, 6.07148E-009,  -122.47, 3.12375E-009,   116.57, 2.9451E-009,   -18.43, 2.32831E-009,    53.13,          0,     0.00, 4.65661E-009,    53.13
Line.L_BSB_MT_5649, 4.29643E-007,   131.97, 1.35264E-006,    -9.49, 8.48584E-007,  -129.21,          0,     0.00, 7.58505E-007,   -47.71, 4.30757E-007,   -48.33, 1.35631E-006,   170.53, 8.48878E-007,    50.77,          0,     0.00, 7.59617E-007,   132.64
Line.L_BSB_MT_5672,   0.783231,   138.60,   0.783232,    18.60,   0.783231,  -101.40,          0,     0.00, 2.65477E-006,    43.88,   0.783231,   -41.40,   0.783232,  -161.40,   0.783231,    78.60,          0,     0.00, 2.65579E-006,  -136.15
Line.L_BSB_MT_8122, 4.58623E-009,   -66.04, 4.29318E-009,  -130.60, 4.165E-009,   -63.43,          0,     0.00, 1.12146E-008,   -85.24, 4.165E-009,   116.57, 5.4305E-009,    30.96, 3.83994E-009,   104.04,          0,     0.00, 1.04125E-008,    79.70
Line.L_BSB_MT_8133,     9.9961,   155.57,     9.9961,    35.57,     9.9961,   -84.43,          0,     0.00, 1.90466E-006,   113.39,     9.9961,   -24.43,     9.9961,  -144.43,     9.9961,    95.57,          0,     0.00, 1.9071E-006,   -66.68
Line.L_BSB_MT_8192,    0.38446,   155.57,    0.38446,    35.57,    0.38446,   -84.43,          0,     0.00, 1.02234E-008,  -120.07,    0.38446,   -24.43,    0.38446,  -144.43,    0.38446,    95.57,          0,     0.00, 8.29086E-009,    51.84
Line.L_BSB_MT_6855,    3.26791,   -24.43,    3.26791,  -144.43,    3.26792,    95.57,          0,     0.00, 6.82654E-007,   168.99,    3.26791,   155.57,    3.26791,    35.57,    3.26792,   -84.43,          0,     0.00, 6.82565E-007,   -10.97
Line.L_BSB_MT_6856,   0.384459,   155.57,   0.384459,    35.57,   0.384461,   -84.43,          0,     0.00, 6.69622E-007,   -80.68,   0.384459,   -24.43,   0.384459,  -144.43,   0.384461,    95.57,          0,     0.00, 6.72229E-007,    99.21
Line.L_BSB_MT_6857,   0.384461,   -24.43,   0.384461,  -144.43,   0.384461,    95.57,          0,     0.00, 8.39483E-009,    70.56,   0.384461,   155.57,   0.384461,    35.57,   0.384461,   -84.43,          0,     0.00, 7.58042E-009,  -132.51
Line.L_BSB_MT_6858,    0.96115,   -24.43,   0.961151,  -144.43,    0.96115,    95.57,          0,     0.00, 1.19757E-006,  -115.72,    0.96115,   155.57,   0.961151,    35.57,    0.96115,   -84.43,          0,     0.00, 1.19485E-006,    64.24
Line.L_BSB_MT_6860,    4.03611,   155.57,    4.03611,    35.57,    4.03611,   -84.43,          0,     0.00, 2.04677E-006,    -4.31,    4.03611,   -24.43,    4.03611,  -144.43,    4.03611,    95.57,          0,     0.00, 2.04431E-006,   175.74
Line.L_BSB_MT_6872,    5.70281,   -24.43,    5.70282,  -144.43,    5.70282,    95.57,          0,     0.00, 3.19358E-006,  -128.96,    5.70281,   155.57,    5.70282,    35.57,    5.70282,   -84.43,          0,     0.00, 3.19298E-006,    51.11
Line.L_BSB_MT_6873,    6.05256,   155.84,    6.05256,    35.84,    6.05256,   -84.16,          0,     0.00, 1.36497E-006,   149.90,    6.05256,   -24.16,    6.05256,  -144.16,    6.05256,    95.84,          0,     0.00, 1.36639E-006,   -29.93
Line.L_BSB_MT_2024,    4.51862,   -24.78,    4.51862,  -144.78,    4.51862,    95.22,          0,     0.00, 3.65971E-006,  -106.99,    4.51862,   155.22,    4.51862,    35.22,    4.51862,   -84.78,          0,     0.00, 3.66395E-006,    72.99
Line.L_BSB_MT_2026,    5.19021,   -24.43,    5.19021,  -144.43,    5.19021,    95.57,          0,     0.00, 6.7875E-007,   169.25,    5.19021,   155.57,    5.19021,    35.57,    5.19021,   -84.43,          0,     0.00, 6.79863E-007,   -10.62
Line.L_BSB_MT_2027,    3.26791,   -24.43,    3.26791,  -144.43,    3.26792,    95.57,          0,     0.00, 6.86731E-007,   169.92,    3.26791,   155.57,    3.26791,    35.57,    3.26792,   -84.43,          0,     0.00, 6.84768E-007,   -10.26
Line.L_BSB_MT_2029,    2.30676,   -24.43,    2.30676,  -144.43,    2.30677,    95.57,          0,     0.00, 6.82546E-007,    98.67,    2.30676,   155.57,    2.30676,    35.57,    2.30677,   -84.43,          0,     0.00, 6.81378E-007,   -81.19
Line.L_BSB_MT_2030,    2.30676,   -24.43,    2.30676,  -144.43,    2.30677,    95.57,          0,     0.00, 6.69731E-007,    98.88,    2.30676,   155.57,    2.30676,    35.57,    2.30677,   -84.43,          0,     0.00, 6.71716E-007,   -81.07
Line.L_BSB_MT_2031,     1.9223,   -24.43,     1.9223,  -144.43,     1.9223,    95.57,          0,     0.00, 2.71525E-009,    30.96,     1.9223,   155.57,     1.9223,    35.57,     1.9223,   -84.43,          0,     0.00, 5.83472E-009,  -118.61
Line.L_BSB_MT_2032,     1.9223,   155.57,     1.9223,    35.57,     1.9223,   -84.43,          0,     0.00, 3.29272E-009,  -135.00,     1.9223,   -24.43,     1.9223,  -144.43,     1.9223,    95.57,          0,     0.00, 5.0369E-009,    56.31
Line.L_BSB_MT_2033,   0.384459,   -24.43,   0.384459,  -144.43,   0.384461,    95.57,          0,     0.00, 6.73449E-007,    99.59,   0.384459,   155.57,   0.384459,    35.57,   0.384461,   -84.43,          0,     0.00, 6.7008E-007,   -80.44
Line.L_BSB_MT_2034,   0.384459,   -24.43,   0.384459,  -144.43,   0.384461,    95.57,          0,     0.00, 6.68168E-007,    99.30,   0.384459,   155.57,   0.384459,    35.57,   0.384461,   -84.43,          0,     0.00, 6.70851E-007,   -80.77
Line.L_BSB_MT_2089, 2.9451E-009,   -18.43, 2.0825E-009,   -26.57, 9.31323E-010,     0.00,          0,     0.00, 5.8902E-009,   -18.43, 1.04125E-009,  -153.43, 2.32831E-009,    36.87, 1.91997E-009,   104.04,          0,     0.00, 2.83251E-009,    80.54
Line.L_BSB_MT_2095, 4.22764E-007,   132.81, 1.33955E-006,    -9.52, 8.52679E-007,  -129.35,          0,     0.00, 7.54394E-007,   -49.18, 4.22423E-007,   -47.14, 1.3397E-006,   170.44, 8.52384E-007,    50.68,          0,     0.00, 7.55756E-007,   130.78
Line.L_BSB_MT_2096, 4.23592E-007,   133.49, 1.34169E-006,    -9.47, 8.54955E-007,  -128.94,          0,     0.00, 7.60955E-007,   -49.47, 4.24571E-007,   -46.47, 1.34085E-006,   170.50, 8.5554E-007,    51.01,          0,     0.00, 7.59142E-007,   130.37
Line.L_BSB_MT_2097, 4.21674E-007,   133.21, 1.34069E-006,    -9.46, 8.57007E-007,  -129.11,          0,     0.00, 7.59694E-007,   -49.52, 4.2401E-007,   -46.91, 1.33985E-006,   170.52, 8.55269E-007,    50.83,          0,     0.00, 7.55954E-007,   130.58
Line.L_BSB_MT_2098,    5.19021,   -24.43,    5.19021,  -144.43,    5.19021,    95.57,          0,     0.00, 6.69792E-007,   168.21,    5.19021,   155.57,    5.19021,    35.57,    5.19021,   -84.43,          0,     0.00, 6.67228E-007,   -11.72
Line.L_BSB_MT_2101,    4.03611,   -24.43,    4.03611,  -144.43,    4.03611,    95.57,          0,     0.00, 2.56863E-006,  -154.77,    4.03611,   155.57,    4.03611,    35.57,    4.03611,   -84.43,          0,     0.00, 2.57071E-006,    25.23
Line.L_BSB_MT_2102,    1.15318,   -24.43,    1.15318,  -144.43,    1.15318,    95.57,          0,     0.00, 9.31323E-010,    90.00,    1.15318,   155.57,    1.15318,    35.57,    1.15318,   -84.43,          0,     0.00, 2.50766E-009,   -68.20
Line.L_BSB_MT_2103, 1.06187E-008,   -52.13, 6.78013E-009,   164.05, 9.31323E-009,  -126.87,          0,     0.00, 1.5046E-008,  -111.80, 1.05573E-008,   131.42, 8.85981E-009,    -3.01, 8.23839E-009,    42.71,          0,     0.00, 1.52535E-008,    58.74
Line.L_BSB_MT_2104, 7.63741E-009,   -52.43, 3.63693E-009,   140.19, 5.8902E-009,  -161.57,          0,     0.00, 6.71586E-009,  -123.69, 8.01154E-009,   125.54, 6.78013E-009,   -15.95, 5.96337E-009,    38.66,          0,     0.00, 1.06187E-008,    52.13
Line.L_BSB_MT_2105, 7.58042E-009,   -47.49, 4.19095E-009,   180.00, 6.46917E-009,  -120.26,          0,     0.00, 1.14158E-008,  -101.77, 7.58042E-009,   132.51, 5.45043E-009,   -19.98, 5.8902E-009,    71.57,          0,     0.00, 9.49766E-009,    78.69
Line.L_BSB_MT_2106, 5.26836E-009,   -45.00, 3.12375E-009,   153.43, 2.0825E-009,   -63.43,          0,     0.00, 4.58623E-009,   -66.04, 5.96337E-009,   128.66, 2.83251E-009,    -9.46, 5.58794E-009,    90.00,          0,     0.00, 9.82314E-009,    95.44
Line.L_BSB_MT_2107, 1.04125E-009,   -26.57, 9.31323E-010,     0.00, 4.65661E-010,   180.00,          0,     0.00, 1.47255E-009,   -18.43, 1.39698E-009,     0.00, 1.47255E-009,   108.43, 2.32831E-009,    53.13,          0,     0.00, 4.00577E-009,    54.46
Line.L_BSB_MT_2108,    5.70281,   -24.43,    5.70282,  -144.43,    5.70282,    95.57,          0,     0.00, 3.18796E-006,  -128.90,    5.70281,   155.57,    5.70282,    35.57,    5.70282,   -84.43,          0,     0.00, 3.18679E-006,    51.13
Line.L_BSB_MT_2221,    7.68934,   -24.43,    7.68934,  -144.43,    7.68934,    95.57,          0,     0.00, 2.31365E-006,    -5.69,    7.68934,   155.57,    7.68934,    35.57,    7.68934,   -84.43,          0,     0.00, 2.3155E-006,   174.31
Line.L_BSB_MT_2222,    7.68934,   -24.43,    7.68934,  -144.43,    7.68934,    95.57,          0,     0.00, 2.30818E-006,    -5.62,    7.68934,   155.57,    7.68934,    35.57,    7.68934,   -84.43,          0,     0.00, 2.30383E-006,   174.42
Line.L_BSB_MT_2223,    7.68934,   -24.43,    7.68934,  -144.43,    7.68934,    95.57,          0,     0.00, 2.30035E-006,    -5.76,    7.68934,   155.57,    7.68934,    35.57,    7.68934,   -84.43,          0,     0.00, 2.29933E-006,   174.26
Line.L_BSB_MT_2224,    7.68934,   -24.43,    7.68934,  -144.43,    7.68934,    95.57,          0,     0.00, 2.294E-006,    -5.81,    7.68934,   155.57,    7.68934,    35.57,    7.68934,   -84.43,          0,     0.00, 2.29419E-006,   174.14
Line.L_BSB_MT_2225,    5.76702,   -24.43,    5.76702,  -144.43,    5.76702,    95.57,          0,     0.00, 2.30129E-006,    -5.88,    5.76702,   155.57,    5.76702,    35.57,    5.76702,   -84.43,          0,     0.00, 2.30063E-006,   174.17
Line.L_BSB_MT_2226,    5.76702,   155.57,    5.76702,    35.57,    5.76702,   -84.43,          0,     0.00, 2.29497E-006,   173.96,    5.76702,   -24.43,    5.76702,  -144.43,    5.76702,    95.57,          0,     0.00, 2.29194E-006,    -5.99
Line.L_BSB_MT_2227,    5.76702,   155.57,    5.76702,    35.57,    5.76702,   -84.43,          0,     0.00, 2.28902E-006,   174.03,    5.76702,   -24.43,    5.76702,  -144.43,    5.76702,    95.57,          0,     0.00, 2.28712E-006,    -5.96
Line.L_BSB_MT_2228,    5.76702,   155.57,    5.76702,    35.57,    5.76702,   -84.43,          0,     0.00, 2.27954E-006,   173.95,    5.76702,   -24.43,    5.76702,  -144.43,    5.76702,    95.57,          0,     0.00, 2.28278E-006,    -6.04
Line.L_BSB_MT_2229,    5.76702,   -24.43,    5.76702,  -144.43,    5.76702,    95.57,          0,     0.00, 2.27571E-006,    -5.92,    5.76702,   155.57,    5.76702,    35.57,    5.76702,   -84.43,          0,     0.00, 2.27627E-006,   174.06
Line.L_BSB_MT_2230,    5.76702,   -24.43,    5.76702,  -144.43,    5.76702,    95.57,          0,     0.00, 2.27562E-006,    -5.90,    5.76702,   155.57,    5.76702,    35.57,    5.76702,   -84.43,          0,     0.00, 2.27409E-006,   174.14
Line.L_BSB_MT_2231,    3.84468,   -24.43,    3.84468,  -144.43,    3.84468,    95.57,          0,     0.00, 1.14161E-006,    -5.57,    3.84468,   155.57,    3.84468,    35.57,    3.84468,   -84.43,          0,     0.00, 1.13887E-006,   174.39
Line.L_BSB_MT_2232,    3.84468,   -24.43,    3.84468,  -144.43,    3.84468,    95.57,          0,     0.00, 1.13192E-006,    -5.64,    3.84468,   155.57,    3.84468,    35.57,    3.84468,   -84.43,          0,     0.00, 1.13238E-006,   174.36
Line.L_BSB_MT_2233,    1.92234,   -24.43,    1.92234,  -144.43,    1.92234,    95.57,          0,     0.00, 4.00577E-009,   -35.54,    1.92234,   155.57,    1.92234,    35.57,    1.92234,   -84.43,          0,     0.00, 5.9269E-009,   135.00
Line.L_BSB_MT_2234,    1.92234,   -24.43,    1.92234,  -144.43,    1.92234,    95.57,          0,     0.00, 6.58545E-009,    98.13,    1.92234,   155.57,    1.92234,    35.57,    1.92234,   -84.43,          0,     0.00, 5.4305E-009,   -59.04
Line.L_BSB_MT_2235,   0.384461,   -24.43,   0.384461,  -144.43,   0.384461,    95.57,          0,     0.00, 2.54074E-008,    41.28,   0.384461,   155.57,   0.384461,    35.57,   0.384461,   -84.43,          0,     0.00, 2.60937E-008,  -145.18
Line.L_BSB_MT_2302,    45.8238,   -24.75,    45.8238,  -144.75,    45.8238,    95.25,          0,     0.00, 1.59011E-005,  -116.56,    45.8238,   155.25,    45.8238,    35.25,    45.8238,   -84.75,          0,     0.00, 1.59013E-005,    63.43
Line.L_BSB_MT_2303,    45.8237,   -24.75,    45.8238,  -144.75,    45.8238,    95.25,          0,     0.00, 1.70671E-005,  -116.28,    45.8237,   155.25,    45.8238,    35.25,    45.8238,   -84.75,          0,     0.00, 1.70696E-005,    63.72
Line.L_BSB_MT_2304,    56.3939,   -24.69,    56.3939,  -144.69,    56.3939,    95.31,          0,     0.00, 1.6358E-005,  -121.32,    56.3939,   155.31,    56.3939,    35.31,    56.3939,   -84.69,          0,     0.00, 1.6359E-005,    58.67
Line.L_BSB_MT_2305,    56.3939,   -24.69,    56.3939,  -144.69,    56.3939,    95.31,          0,     0.00, 1.63663E-005,  -121.34,    56.3939,   155.31,    56.3939,    35.31,    56.3939,   -84.69,          0,     0.00, 1.63647E-005,    58.66
Line.L_BSB_MT_2306,    58.3156,   -24.68,    58.3156,  -144.68,    58.3156,    95.32,          0,     0.00, 1.63516E-005,  -121.34,    58.3156,   155.32,    58.3156,    35.32,    58.3156,   -84.68,          0,     0.00, 1.6352E-005,    58.66
Line.L_BSB_MT_2307,    58.3156,   -24.68,    58.3156,  -144.68,    58.3156,    95.32,          0,     0.00, 1.63577E-005,  -121.35,    58.3156,   155.32,    58.3156,    35.32,    58.3156,   -84.68,          0,     0.00, 1.63603E-005,    58.64
Line.L_BSB_MT_2308,    58.3156,   -24.68,    58.3156,  -144.68,    58.3156,    95.32,          0,     0.00, 1.63581E-005,  -121.35,    58.3156,   155.32,    58.3156,    35.32,    58.3156,   -84.68,          0,     0.00, 1.6358E-005,    58.65
Line.L_BSB_MT_2309,    58.3156,   -24.68,    58.3156,  -144.68,    58.3156,    95.32,          0,     0.00, 1.63551E-005,  -121.37,    58.3156,   155.32,    58.3156,    35.32,    58.3156,   -84.68,          0,     0.00, 1.63575E-005,    58.64
Line.L_BSB_MT_2310,    60.2373,   -24.67,    60.2373,  -144.67,    60.2373,    95.33,          0,     0.00, 1.63497E-005,  -121.37,    60.2373,   155.33,    60.2373,    35.33,    60.2373,   -84.67,          0,     0.00, 1.6352E-005,    58.63
Line.L_BSB_MT_2311,    70.9982,   -24.63,    70.9982,  -144.63,    70.9982,    95.37,          0,     0.00, 1.98032E-005,  -119.85,    70.9982,   155.37,    70.9982,    35.37,    70.9982,   -84.63,          0,     0.00, 1.98036E-005,    60.15
Line.L_BSB_MT_2312,     84.728,   155.28,     84.728,    35.28,     84.728,   -84.72,          0,     0.00, 3.0335E-005,    60.71,     84.728,   -24.72,     84.728,  -144.72,     84.728,    95.28,          0,     0.00, 3.03351E-005,  -119.28
Line.L_BSB_MT_2313,    5.76488,   -24.42,    5.76488,  -144.42,    5.76488,    95.58,          0,     0.00, 1.04125E-009,   -26.57,    5.76488,   155.58,    5.76488,    35.58,    5.76488,   -84.42,          0,     0.00, 9.31323E-010,     0.00
Line.L_BSB_MT_2314,    78.9633,   155.26,    78.9633,    35.26,    78.9633,   -84.74,          0,     0.00, 3.03551E-005,    60.73,    78.9633,   -24.74,    78.9633,  -144.74,    78.9633,    95.26,          0,     0.00, 3.03535E-005,  -119.28
Line.L_BSB_MT_4477,    5.19021,   -24.43,    5.19021,  -144.43,    5.19021,    95.57,          0,     0.00, 6.78837E-007,   169.21,    5.19021,   155.57,    5.19021,    35.57,    5.19021,   -84.43,          0,     0.00, 6.81066E-007,   -10.52
Line.L_BSB_MT_4478,    2.30676,   -24.43,    2.30676,  -144.43,    2.30677,    95.57,          0,     0.00, 6.82441E-007,    98.87,    2.30676,   155.57,    2.30676,    35.57,    2.30677,   -84.43,          0,     0.00, 6.8375E-007,   -81.19
Line.L_BSB_MT_4479,     1.9223,   155.57,     1.9223,    35.57,     1.9223,   -84.43,          0,     0.00, 2.9451E-009,   -71.57,     1.9223,   -24.43,     1.9223,  -144.43,     1.9223,    95.57,          0,     0.00, 1.67897E-009,   146.31
Line.L_BSB_MT_4480,   0.384459,   -24.43,   0.384459,  -144.43,   0.384461,    95.57,          0,     0.00, 6.76606E-007,    99.03,   0.384459,   155.57,   0.384459,    35.57,   0.384461,   -84.43,          0,     0.00, 6.73773E-007,   -80.97
Line.L_BSB_MT_4481,   0.384461,   -24.43,   0.384461,  -144.43,   0.384461,    95.57,          0,     0.00, 1.61646E-008,    41.50,   0.384461,   155.57,   0.384461,    35.57,   0.384461,   -84.43,          0,     0.00, 1.51608E-008,  -137.49
Line.L_BSB_MT_4482,   0.384461,   -24.43,   0.384461,  -144.43,   0.384461,    95.57,          0,     0.00, 1.47255E-009,    71.57,   0.384461,   155.57,   0.384461,    35.57,   0.384461,   -84.43,          0,     0.00, 3.29272E-009,   135.00
Line.L_BSB_MT_4483,    0.96115,   -24.43,   0.961151,  -144.43,    0.96115,    95.57,          0,     0.00, 1.19611E-006,  -115.73,    0.96115,   155.57,   0.961151,    35.57,    0.96115,   -84.43,          0,     0.00, 1.1967E-006,    64.16
Line.L_BSB_MT_4484,    0.96115,   -24.43,   0.961151,  -144.43,    0.96115,    95.57,          0,     0.00, 1.19923E-006,  -115.73,    0.96115,   155.57,   0.961151,    35.57,    0.96115,   -84.43,          0,     0.00, 1.20004E-006,    64.19
Line.L_BSB_MT_4485,   0.961152,   -24.43,   0.961152,  -144.43,   0.961152,    95.57,          0,     0.00, 3.75428E-009,    29.74,   0.961152,   155.57,   0.961152,    35.57,   0.961152,   -84.43,          0,     0.00, 4.29318E-009,  -139.40
Line.L_BSB_MT_4486,    17.5844,   155.67,    17.5844,    35.67,    17.5844,   -84.33,          0,     0.00, 5.59774E-006,    43.44,    17.5844,   -24.33,    17.5844,  -144.33,    17.5844,    95.67,          0,     0.00, 5.60059E-006,  -136.52
Line.L_BSB_MT_4487,    15.6625,   155.68,    15.6625,    35.68,    15.6625,   -84.32,          0,     0.00, 2.8119E-006,    64.30,    15.6625,   -24.32,    15.6625,  -144.32,    15.6625,    95.68,          0,     0.00, 2.81501E-006,  -115.73
Line.L_BSB_MT_4493,    2.88294,   -24.43,    2.88294,  -144.43,    2.88294,    95.57,          0,     0.00, 5.62661E-009,    65.56,    2.88294,   155.57,    2.88294,    35.57,    2.88294,   -84.43,          0,     0.00, 4.67984E-009,   -84.29
...
Line.L_65590813, 4.21993E-007,   -46.74, 1.34077E-006,   170.52, 8.54681E-007,    50.88,          0,     0.00, 7.59237E-007,   130.60, 4.21695E-007,   133.12, 1.34184E-006,    -9.51, 8.56127E-007,  -129.04,          0,     0.00, 7.62217E-007,   -49.41
Line.L_65590817, 4.24647E-007,   -46.82, 1.34024E-006,   170.42, 8.55269E-007,    50.83,          0,     0.00, 7.5712E-007,   130.41, 4.24647E-007,   133.18, 1.34215E-006,    -9.59, 8.55269E-007,  -129.17,          0,     0.00, 7.58683E-007,   -49.51
Line.L_65590822, 4.22354E-007,   -46.88, 1.34284E-006,   170.48, 8.54681E-007,    50.88,          0,     0.00, 7.61107E-007,   130.71, 4.22354E-007,   133.12, 1.34016E-006,    -9.56, 8.54975E-007,  -129.14,          0,     0.00, 7.59339E-007,   -49.50
Line.L_65590824, 4.26303E-007,   -46.86, 1.34606E-006,   170.38, 8.52942E-007,    50.83,          0,     0.00, 7.60001E-007,   130.83, 4.25624E-007,   133.23, 1.34422E-006,    -9.63, 8.5554E-007,  -128.99,          0,     0.00, 7.62622E-007,   -49.48
Line.L_BSB_MT_7215_1,   0.961039,   -24.43,   0.961039,  -144.43,   0.961039,    95.57,          0,     0.00, 1.28928E-006,  -103.43,   0.961039,   155.57,   0.961039,    35.57,   0.961039,   -84.43,          0,     0.00, 1.28701E-006,    76.55
Line.L_BSB_MT_7215_2,   0.961039,   -24.43,   0.961039,  -144.43,   0.961039,    95.57,          0,     0.00, 1.28394E-006,  -102.87,   0.961039,   155.57,   0.961039,    35.57,   0.961039,   -84.43,          0,     0.00, 1.2808E-006,    77.19
Line.L_TR_MT_ALIM12,    1.31856,   155.57,    1.31857,    35.57,    1.31857,   -84.43,          0,     0.00, 4.07823E-006,    30.24,    1.31856,   -24.43,    1.31857,  -144.43,    1.31857,    95.57,          0,     0.00, 4.0795E-006,  -149.75
Line.L_TR_MT_ALIM13,     2.0771,   -24.43,     2.0771,  -144.43,     2.0771,    95.57,          0,     0.00, 3.8482E-006,   -95.49,     2.0771,   155.57,     2.0771,    35.57,     2.0771,   -84.43,          0,     0.00, 3.84365E-006,    84.49
Line.L_TR_MT_ALIM14,    1.56455,   -24.43,    1.56455,  -144.43,    1.56455,    95.57,          0,     0.00, 2.12655E-006,  -106.17,    1.56455,   155.57,    1.56455,    35.57,    1.56455,   -84.43,          0,     0.00, 2.12904E-006,    73.82
Line.L_TR_MT_ALIM55, 4.27194E-007,   -47.65, 1.34667E-006,   170.47, 8.538E-007,    50.95,          0,     0.00, 7.60165E-007,   131.37, 4.26163E-007,   132.48, 1.34674E-006,    -9.55, 8.54662E-007,  -128.92,          0,     0.00, 7.63578E-007,   -48.76
Line.L_BSB_MT_4610,    70.9982,   -24.63,    70.9982,  -144.63,    70.9982,    95.37,          0,     0.00, 1.57574E-005,  -121.87,    70.9982,   155.37,    70.9982,    35.37,    70.9982,   -84.63,          0,     0.00, 1.57568E-005,    58.12
Line.L_BSB_MT_4611,    72.9197,   -24.63,    72.9197,  -144.63,    72.9197,    95.37,          0,     0.00, 2.0648E-005,  -119.22,    72.9197,   155.37,    72.9197,    35.37,    72.9197,   -84.63,          0,     0.00, 2.06504E-005,    60.79
Line.L_BSB_MT_4612,    78.9633,   155.26,    78.9633,    35.26,    78.9633,   -84.74,          0,     0.00, 3.03451E-005,    60.72,    78.9633,   -24.74,    78.9633,  -144.74,    78.9633,    95.26,          0,     0.00, 3.03457E-005,  -119.28
Line.L_BSB_MT_4616,    4.03611,   155.57,    4.03611,    35.57,    4.03611,   -84.43,          0,     0.00, 2.03177E-006,    -4.28,    4.03611,   -24.43,    4.03611,  -144.43,    4.03611,    95.57,          0,     0.00, 2.03563E-006,   175.67
Line.L_BSB_MT_4838,   0.512549,   -24.43,   0.512548,  -144.43,   0.512549,    95.57,          0,     0.00, 7.63967E-007,   -45.69,   0.512549,   155.57,   0.512548,    35.57,   0.512549,   -84.43,          0,     0.00, 7.61415E-007,   133.91
Line.SW_FM1277_DP_9571, 1.19209E-006,   180.00, 8.67857E-007,   -15.95, 9.83025E-007,  -104.04,          0,     0.00, 1.3328E-006,  -116.57, 3.37175E-007,    45.00, 9.61096E-007,   150.26, 7.15256E-007,   180.00,          0,     0.00, 1.49369E-006,   151.39
Line.SW_FP0026, 8.5963E-007,    33.69, 1.70682E-006,   -24.78, 1.19209E-006,   180.00,          0,     0.00, 1.09906E-006,   -12.53, 5.3312E-007,  -116.57, 1.17408E-006,   156.04, 1.28392E-006,   -21.80,          0,     0.00, 4.91512E-007,  -104.04
Line.SW_FIC3622, 7.53946E-007,    71.57, 8.67857E-007,   -15.95, 7.15256E-007,   180.00,          0,     0.00, 5.96046E-007,    53.13, 5.3312E-007,   153.43, 4.29815E-007,   146.31, 7.15256E-007,     0.00,          0,     0.00, 4.91512E-007,   104.04
Line.SW_FK0206, 1.01852E-006,   110.56, 1.86592E-006,   -63.43,          0,     0.00,          0,     0.00, 8.5963E-007,   -56.31, 5.96046E-007,     0.00, 1.47454E-006,   104.04, 4.76837E-007,   -90.00,          0,     0.00, 9.83025E-007,    75.96
Line.SW_FW9172,    11.3232,   -25.58,    11.3231,  -145.58,    11.3231,    94.42,          0,     0.00, 1.43547E-006,   -41.63,    11.3232,   154.42,    11.3231,    34.42,    11.3231,   -85.58,          0,     0.00, 2.14908E-006,    93.18
Line.SW_FK0262, 5.3312E-007,   -63.43, 1.78814E-006,     0.00, 2.38419E-007,   180.00,          0,     0.00, 1.85063E-006,   -14.93, 8.5963E-007,   123.69, 4.29815E-007,   146.31, 6.7435E-007,  -135.00,          0,     0.00, 1.39531E-006,   160.02
Line.SW_FW0342,    39.2107,   154.90,    39.2107,    34.90,    39.2107,   -85.10,          0,     0.00, 3.94112E-006,   176.53,    39.2107,   -25.10,    39.2107,  -145.10,    39.2107,    94.90,          0,     0.00, 2.74181E-006,     0.00
Line.SW_FP7950, 4.29815E-007,    33.69, 1.50789E-006,   -71.57, 1.19209E-006,  -126.87,          0,     0.00, 2.14908E-006,   -86.82, 1.19209E-007,   180.00, 1.3487E-006,   135.00, 5.3312E-007,    63.43,          0,     0.00, 1.65611E-006,   120.26
Line.SW_FW0514,    19.9716,   -25.08,    19.9716,  -145.08,    19.9716,    94.92,          0,     0.00, 5.46936E-006,  -106.46,    19.9716,   154.92,    19.9716,    34.92,    19.9716,   -85.08,          0,     0.00, 3.57826E-006,    91.91
Line.SW_FW0289,    1.15317,   155.57,    1.15318,    35.57,    1.15318,   -84.43,          0,     0.00, 8.34465E-007,     0.00,    1.15318,   -24.43,    1.15318,  -144.43,    1.15317,    95.57,          0,     0.00, 1.01852E-006,  -110.56
Line.SW_FW0288, 9.83025E-007,    75.96, 1.56795E-006,     8.75, 8.5963E-007,  -146.31,          0,     0.00, 1.28945E-006,    33.69, 4.76837E-007,   180.00, 1.07288E-006,   180.00, 1.19209E-006,    53.13,          0,     0.00, 1.26721E-006,   131.19
Line.SW_FP7288_DP_8083,    20.9531,   154.32,    20.9531,    34.32,    20.9531,   -85.68,          0,     0.00, 4.49373E-006,  -158.20,    20.9531,   -25.68,    20.9531,  -145.68,    20.9531,    94.32,          0,     0.00, 4.23319E-006,     9.73
Line.SW_FW0285, 1.06624E-006,  -153.43, 1.3328E-006,    10.30, 4.76837E-007,   180.00,          0,     0.00, 2.6656E-007,  -116.57, 5.3312E-007,    63.43, 9.61096E-007,  -150.26, 9.53674E-007,   180.00,          0,     0.00, 1.54972E-006,   180.00
Line.SW_FW2722,    9.89654,   155.74,    9.89654,    35.74,    9.89654,   -84.26,          0,     0.00, 1.92589E-006,   158.20,    9.89654,   -24.26,    9.89655,  -144.26,    9.89654,    95.74,          0,     0.00, 4.29815E-007,   146.31
Line.SW_FW6553,    10.2845,   -24.58,    10.2845,  -144.58,    10.2845,    95.42,          0,     0.00, 6.4163E-006,  -125.17,    10.2845,   155.42,    10.2845,    35.42,    10.2845,   -84.58,          0,     0.00, 5.93298E-006,    67.56
Line.SW_FZ2779, 1.85063E-006,    14.93, 1.96605E-006,   -14.04, 1.52662E-006,   141.34,          0,     0.00, 2.6789E-006,    20.85, 2.5484E-006,   169.22, 7.53946E-007,   161.57, 8.5963E-007,    33.69,          0,     0.00, 2.77274E-006,   154.54
Line.SW_FZ4654, 8.67857E-007,   164.05, 7.9968E-007,   -63.43, 1.06624E-006,  -153.43,          0,     0.00, 1.71926E-006,  -146.31, 1.12462E-006,    57.99, 1.19209E-007,   180.00,          0,     0.00,          0,     0.00, 1.06624E-006,    63.43
Line.SW_FIC2643,   0.659284,   155.57,   0.659283,    35.57,   0.659283,   -84.43,          0,     0.00, 1.70682E-006,    77.91,   0.659283,   -24.43,   0.659283,  -144.43,   0.659283,    95.57,          0,     0.00, 1.95518E-006,  -142.43
Line.SW_FP3882, 6.41962E-007,   -21.80, 2.15897E-006,    -6.34, 9.83025E-007,  -104.04,          0,     0.00, 2.88329E-006,   -29.74, 4.91512E-007,    75.96,          0,     0.00, 8.5963E-007,  -146.31,          0,     0.00, 5.96046E-007,   180.00
Line.SW_FW0019, 7.15256E-007,     0.00, 8.34465E-007,     0.00, 8.5963E-007,   146.31,          0,     0.00, 9.61096E-007,    29.74, 4.76837E-007,    90.00, 1.17408E-006,  -156.04, 8.5963E-007,   -33.69,          0,     0.00, 5.96046E-007,  -126.87
Line.SW_FW9401,   0.961151,   155.57,   0.961151,    35.57,   0.961149,   -84.43,          0,     0.00, 2.18839E-006,    60.64,   0.961151,   -24.43,   0.961152,  -144.43,    0.96115,    95.57,          0,     0.00, 2.10903E-006,  -137.29
Line.SW_FF0995,    15.6989,   155.57,    15.6989,    35.57,    15.6989,   -84.43,          0,     0.00, 4.29319E-006,    91.59,    15.6989,   -24.43,    15.6989,  -144.43,    15.6989,    95.57,          0,     0.00, 3.9049E-006,  -102.34
Line.SW_FU0492,     9.9961,   155.57,     9.9961,    35.57,     9.9961,   -84.43,          0,     0.00, 4.91512E-007,    75.96,     9.9961,   -24.43,     9.9961,  -144.43,     9.9961,    95.57,          0,     0.00, 2.44597E-006,   -43.03
Line.SW_FW9565,    6.05256,   155.84,    6.05256,    35.84,    6.05256,   -84.16,          0,     0.00, 2.0819E-006,   166.76,    6.05256,   -24.16,    6.05256,  -144.16,    6.05256,    95.84,          0,     0.00, 1.95518E-006,    37.57
Line.SW_FU1827,    5.19021,   155.57,    5.19021,    35.57,    5.19021,   -84.43,          0,     0.00, 8.34465E-007,     0.00,    5.19021,   -24.43,    5.19021,  -144.43,    5.19021,    95.57,          0,     0.00, 1.3113E-006,   180.00
Line.SW_FW9846, 4.29815E-007,   146.31, 2.45756E-006,   -22.83, 9.83025E-007,    75.96,          0,     0.00, 2.15897E-006,     6.34, 9.61096E-007,    29.74, 2.0819E-006,   166.76, 5.3312E-007,  -116.57,          0,     0.00, 1.50789E-006,   161.57
Line.SW_FW1252,    19.9716,   -25.08,    19.9716,  -145.08,    19.9716,    94.92,          0,     0.00, 6.33606E-006,  -101.94,    19.9716,   154.92,    19.9716,    34.92,    19.9716,   -85.08,          0,     0.00, 5.72329E-006,    88.81
Line.SW_FT9912, 1.28945E-006,    33.69, 1.59936E-006,   -26.57, 1.19209E-006,   180.00,          0,     0.00, 1.3113E-006,     0.00, 5.96046E-007,   180.00, 1.2157E-006,   168.69, 1.28392E-006,    21.80,          0,     0.00, 9.31054E-007,   129.81
...